/*--------------------------------*- C++ -*----------------------------------*\
  =========                 |
  \\      /  F ield         | OpenFOAM: The Open Source CFD Toolbox
   \\    /   O peration     | Website:  https://openfoam.org
    \\  /    A nd           | Version:  7
     \\/     M anipulation  |
\*---------------------------------------------------------------------------*/
FoamFile
{
    version     2.0;
    format      ascii;
    class       volScalarField;
    location    "46800/buildings";
    object      pc;
}
// * * * * * * * * * * * * * * * * * * * * * * * * * * * * * * * * * * * * * //

dimensions      [1 -1 -2 0 0 0 0];

internalField   uniform -10000000;

boundaryField
{
    sides
    {
        type            zeroGradient;
    }
    buildings_to_air
    {
        type            compressible::CFDHAMsolidMoistureCoupledImpermeable;
        value           uniform -10000000;
    }
    interior
    {
        type            zeroGradient;
    }
}


// ************************************************************************* //
